output/2_TAP2_1/Cargas_MT_DU01_2_TAP2_1.dss
New "Load.MT_8444_M1" bus1="84441.1.2.3.4" phases=3 conn=delta model=2 kv=13.8 kw = 1555.735592315684 pf=0.92 status=variable vmaxpu=1.5 vminpu=0.93 daily="1_DU" 
New "Load.MT_8444_M2" bus1="84441.1.2.3.4" phases=3 conn=delta model=3 kv=13.8 kw = 1555.735592315684 pf=0.92 status=variable vmaxpu=1.5 vminpu=0.93 daily="1_DU"
 
New "Load.MT_8266_M1" bus1="82661.1.2.3.4" phases=3 conn=delta model=2 kv=13.8 kw = 1835.4249246990378 pf=0.92 status=variable vmaxpu=1.5 vminpu=0.93 daily="5_DU" 
New "Load.MT_8266_M2" bus1="82661.1.2.3.4" phases=3 conn=delta model=3 kv=13.8 kw = 1835.4249246990378 pf=0.92 status=variable vmaxpu=1.5 vminpu=0.93 daily="5_DU"
 
New "Load.MT_8092_M1" bus1="80921.1.2.3.4" phases=3 conn=delta model=2 kv=13.8 kw = 3749.068823890205 pf=0.92 status=variable vmaxpu=1.5 vminpu=0.93 daily="6_DU" 
New "Load.MT_8092_M2" bus1="80921.1.2.3.4" phases=3 conn=delta model=3 kv=13.8 kw = 3749.068823890205 pf=0.92 status=variable vmaxpu=1.5 vminpu=0.93 daily="6_DU"
 
New "Load.MT_7769_M1" bus1="77691.1.2.3.4" phases=3 conn=delta model=2 kv=13.8 kw = 4630.90627979302 pf=0.92 status=variable vmaxpu=1.5 vminpu=0.93 daily="1_DU" 
New "Load.MT_7769_M2" bus1="77691.1.2.3.4" phases=3 conn=delta model=3 kv=13.8 kw = 4630.90627979302 pf=0.92 status=variable vmaxpu=1.5 vminpu=0.93 daily="1_DU"
 
New "Load.MT_7632_M1" bus1="76321.1.2.3.4" phases=3 conn=delta model=2 kv=13.8 kw = 43805.98014147059 pf=0.92 status=variable vmaxpu=1.5 vminpu=0.93 daily="6_DU" 
New "Load.MT_7632_M2" bus1="76321.1.2.3.4" phases=3 conn=delta model=3 kv=13.8 kw = 43805.98014147059 pf=0.92 status=variable vmaxpu=1.5 vminpu=0.93 daily="6_DU"
 
New "Load.MT_7595_M1" bus1="75951.1.2.3.4" phases=3 conn=delta model=2 kv=13.8 kw = 5528.0101035701955 pf=0.92 status=variable vmaxpu=1.5 vminpu=0.93 daily="3_DU" 
New "Load.MT_7595_M2" bus1="75951.1.2.3.4" phases=3 conn=delta model=3 kv=13.8 kw = 5528.0101035701955 pf=0.92 status=variable vmaxpu=1.5 vminpu=0.93 daily="3_DU"
 
New "Load.MT_7322_M1" bus1="73221.1.2.3.4" phases=3 conn=delta model=2 kv=13.8 kw = 57048.82417021613 pf=0.92 status=variable vmaxpu=1.5 vminpu=0.93 daily="1_DU" 
New "Load.MT_7322_M2" bus1="73221.1.2.3.4" phases=3 conn=delta model=3 kv=13.8 kw = 57048.82417021613 pf=0.92 status=variable vmaxpu=1.5 vminpu=0.93 daily="1_DU"
 
New "Load.MT_6803_M1" bus1="68031.1.2.3.4" phases=3 conn=delta model=2 kv=13.8 kw = 98939.59788596978 pf=0.92 status=variable vmaxpu=1.5 vminpu=0.93 daily="1_DU" 
New "Load.MT_6803_M2" bus1="68031.1.2.3.4" phases=3 conn=delta model=3 kv=13.8 kw = 98939.59788596978 pf=0.92 status=variable vmaxpu=1.5 vminpu=0.93 daily="1_DU"
 
New "Load.MT_7250_M1" bus1="72501.1.2.3.4" phases=3 conn=delta model=2 kv=13.8 kw = 29543.418898074837 pf=0.92 status=variable vmaxpu=1.5 vminpu=0.93 daily="1_DU" 
New "Load.MT_7250_M2" bus1="72501.1.2.3.4" phases=3 conn=delta model=3 kv=13.8 kw = 29543.418898074837 pf=0.92 status=variable vmaxpu=1.5 vminpu=0.93 daily="1_DU"
 
New "Load.MT_126_M1" bus1="1261.1.2.3.4" phases=3 conn=delta model=2 kv=13.8 kw = 3137560.947395284 pf=0.92 status=variable vmaxpu=1.5 vminpu=0.93 daily="3_DU" 
New "Load.MT_126_M2" bus1="1261.1.2.3.4" phases=3 conn=delta model=3 kv=13.8 kw = 3137560.947395284 pf=0.92 status=variable vmaxpu=1.5 vminpu=0.93 daily="3_DU"
 
New "Load.MT_1236_M1" bus1="12361.1.2.3.4" phases=3 conn=delta model=2 kv=13.8 kw = 427314.56814454554 pf=0.92 status=variable vmaxpu=1.5 vminpu=0.93 daily="3_DU" 
New "Load.MT_1236_M2" bus1="12361.1.2.3.4" phases=3 conn=delta model=3 kv=13.8 kw = 427314.56814454554 pf=0.92 status=variable vmaxpu=1.5 vminpu=0.93 daily="3_DU"
 
New "Load.MT_1705_M1" bus1="17051.1.2.3.4" phases=3 conn=delta model=2 kv=13.8 kw = 29134.420150286795 pf=0.92 status=variable vmaxpu=1.5 vminpu=0.93 daily="7_DU" 
New "Load.MT_1705_M2" bus1="17051.1.2.3.4" phases=3 conn=delta model=3 kv=13.8 kw = 29134.420150286795 pf=0.92 status=variable vmaxpu=1.5 vminpu=0.93 daily="7_DU"
 
New "Load.MT_461_M1" bus1="4611.1.2.3.4" phases=3 conn=delta model=2 kv=13.8 kw = 13597.129076839077 pf=0.92 status=variable vmaxpu=1.5 vminpu=0.93 daily="1_DU" 
New "Load.MT_461_M2" bus1="4611.1.2.3.4" phases=3 conn=delta model=3 kv=13.8 kw = 13597.129076839077 pf=0.92 status=variable vmaxpu=1.5 vminpu=0.93 daily="1_DU"
 
New "Load.MT_427_M1" bus1="4271.1.2.3.4" phases=3 conn=delta model=2 kv=13.8 kw = 31654.03351831645 pf=0.92 status=variable vmaxpu=1.5 vminpu=0.93 daily="1_DU" 
New "Load.MT_427_M2" bus1="4271.1.2.3.4" phases=3 conn=delta model=3 kv=13.8 kw = 31654.03351831645 pf=0.92 status=variable vmaxpu=1.5 vminpu=0.93 daily="1_DU"
 
